test/data/enwl/networks/network_19/Feeder_5/Loads.dss
New Load.LOAD1 Phases=1 Bus1=188.1 kV=0.23 kW=1 PF=0.95
New Load.LOAD2 Phases=1 Bus1=197.2 kV=0.23 kW=1 PF=0.95
New Load.LOAD3 Phases=1 Bus1=213.3 kV=0.23 kW=1 PF=0.95
New Load.LOAD4 Phases=1 Bus1=220.1 kV=0.23 kW=1 PF=0.95
New Load.LOAD5 Phases=1 Bus1=221.1 kV=0.23 kW=1 PF=0.95
New Load.LOAD6 Phases=1 Bus1=242.2 kV=0.23 kW=1 PF=0.95
New Load.LOAD7 Phases=1 Bus1=253.3 kV=0.23 kW=1 PF=0.95
New Load.LOAD8 Phases=1 Bus1=259.1 kV=0.23 kW=1 PF=0.95
New Load.LOAD9 Phases=1 Bus1=261.2 kV=0.23 kW=1 PF=0.95
New Load.LOAD10 Phases=1 Bus1=273.3 kV=0.23 kW=1 PF=0.95
New Load.LOAD11 Phases=1 Bus1=274.2 kV=0.23 kW=1 PF=0.95
New Load.LOAD12 Phases=1 Bus1=285.2 kV=0.23 kW=1 PF=0.95
New Load.LOAD13 Phases=1 Bus1=318.1 kV=0.23 kW=1 PF=0.95
New Load.LOAD14 Phases=1 Bus1=329.1 kV=0.23 kW=1 PF=0.95
New Load.LOAD15 Phases=1 Bus1=345.1 kV=0.23 kW=1 PF=0.95
New Load.LOAD16 Phases=1 Bus1=355.2 kV=0.23 kW=1 PF=0.95
New Load.LOAD17 Phases=1 Bus1=384.1 kV=0.23 kW=1 PF=0.95
New Load.LOAD18 Phases=1 Bus1=385.1 kV=0.23 kW=1 PF=0.95
New Load.LOAD19 Phases=1 Bus1=413.1 kV=0.23 kW=1 PF=0.95
New Load.LOAD20 Phases=1 Bus1=425.1 kV=0.23 kW=1 PF=0.95
New Load.LOAD21 Phases=1 Bus1=441.2 kV=0.23 kW=1 PF=0.95
New Load.LOAD22 Phases=1 Bus1=455.2 kV=0.23 kW=1 PF=0.95
New Load.LOAD23 Phases=1 Bus1=494.1 kV=0.23 kW=1 PF=0.95
New Load.LOAD24 Phases=1 Bus1=495.1 kV=0.23 kW=1 PF=0.95
New Load.LOAD25 Phases=1 Bus1=496.1 kV=0.23 kW=1 PF=0.95
New Load.LOAD26 Phases=1 Bus1=522.1 kV=0.23 kW=1 PF=0.95
New Load.LOAD27 Phases=1 Bus1=546.1 kV=0.23 kW=1 PF=0.95
New Load.LOAD28 Phases=1 Bus1=550.1 kV=0.23 kW=1 PF=0.95
New Load.LOAD29 Phases=1 Bus1=551.3 kV=0.23 kW=1 PF=0.95
New Load.LOAD30 Phases=1 Bus1=572.1 kV=0.23 kW=1 PF=0.95
New Load.LOAD31 Phases=1 Bus1=574.3 kV=0.23 kW=1 PF=0.95
New Load.LOAD32 Phases=1 Bus1=577.2 kV=0.23 kW=1 PF=0.95
New Load.LOAD33 Phases=1 Bus1=614.1 kV=0.23 kW=1 PF=0.95
New Load.LOAD34 Phases=1 Bus1=617.1 kV=0.23 kW=1 PF=0.95
New Load.LOAD35 Phases=1 Bus1=623.2 kV=0.23 kW=1 PF=0.95
New Load.LOAD36 Phases=1 Bus1=694.3 kV=0.23 kW=1 PF=0.95
New Load.LOAD37 Phases=1 Bus1=752.3 kV=0.23 kW=1 PF=0.95
New Load.LOAD38 Phases=1 Bus1=761.1 kV=0.23 kW=1 PF=0.95
New Load.LOAD39 Phases=1 Bus1=801.3 kV=0.23 kW=1 PF=0.95
New Load.LOAD40 Phases=1 Bus1=819.1 kV=0.23 kW=1 PF=0.95
New Load.LOAD41 Phases=1 Bus1=850.3 kV=0.23 kW=1 PF=0.95
New Load.LOAD42 Phases=1 Bus1=887.1 kV=0.23 kW=1 PF=0.95
New Load.LOAD43 Phases=1 Bus1=906.2 kV=0.23 kW=1 PF=0.95
New Load.LOAD44 Phases=1 Bus1=933.3 kV=0.23 kW=1 PF=0.95
New Load.LOAD45 Phases=1 Bus1=945.1 kV=0.23 kW=1 PF=0.95
New Load.LOAD46 Phases=1 Bus1=947.3 kV=0.23 kW=1 PF=0.95
New Load.LOAD47 Phases=1 Bus1=968.3 kV=0.23 kW=1 PF=0.95
New Load.LOAD48 Phases=1 Bus1=971.3 kV=0.23 kW=1 PF=0.95
New Load.LOAD49 Phases=1 Bus1=975.2 kV=0.23 kW=1 PF=0.95
New Load.LOAD50 Phases=1 Bus1=996.3 kV=0.23 kW=1 PF=0.95
New Load.LOAD51 Phases=1 Bus1=998.3 kV=0.23 kW=1 PF=0.95
New Load.LOAD52 Phases=1 Bus1=1001.2 kV=0.23 kW=1 PF=0.95
New Load.LOAD53 Phases=1 Bus1=1013.2 kV=0.23 kW=1 PF=0.95
New Load.LOAD54 Phases=1 Bus1=1019.3 kV=0.23 kW=1 PF=0.95
New Load.LOAD55 Phases=1 Bus1=1035.2 kV=0.23 kW=1 PF=0.95
New Load.LOAD56 Phases=1 Bus1=1036.2 kV=0.23 kW=1 PF=0.95
New Load.LOAD57 Phases=1 Bus1=1040.3 kV=0.23 kW=1 PF=0.95
New Load.LOAD58 Phases=1 Bus1=1043.3 kV=0.23 kW=1 PF=0.95
New Load.LOAD59 Phases=1 Bus1=1050.3 kV=0.23 kW=1 PF=0.95
New Load.LOAD60 Phases=1 Bus1=1053.2 kV=0.23 kW=1 PF=0.95
New Load.LOAD61 Phases=1 Bus1=1056.3 kV=0.23 kW=1 PF=0.95
New Load.LOAD62 Phases=1 Bus1=1064.3 kV=0.23 kW=1 PF=0.95
New Load.LOAD63 Phases=1 Bus1=1070.3 kV=0.23 kW=1 PF=0.95
New Load.LOAD64 Phases=1 Bus1=1092.2 kV=0.23 kW=1 PF=0.95
New Load.LOAD65 Phases=1 Bus1=1101.2 kV=0.23 kW=1 PF=0.95
New Load.LOAD66 Phases=1 Bus1=1112.3 kV=0.23 kW=1 PF=0.95
New Load.LOAD67 Phases=1 Bus1=1137.3 kV=0.23 kW=1 PF=0.95
New Load.LOAD68 Phases=1 Bus1=1147.3 kV=0.23 kW=1 PF=0.95
New Load.LOAD69 Phases=1 Bus1=1152.2 kV=0.23 kW=1 PF=0.95
New Load.LOAD70 Phases=1 Bus1=1153.2 kV=0.23 kW=1 PF=0.95
New Load.LOAD71 Phases=1 Bus1=1193.2 kV=0.23 kW=1 PF=0.95
New Load.LOAD72 Phases=1 Bus1=1198.2 kV=0.23 kW=1 PF=0.95
New Load.LOAD73 Phases=1 Bus1=1207.2 kV=0.23 kW=1 PF=0.95